[Format]      =  4.0
[Frequency]   =  20
[Precision]   =  1e-008
[MinAngle]    =  30
[DoSmartMesh] =  1
[Depth]       =  1
[LengthUnits] =  millimeters
[ProblemType] =  planar
[Coordinates] =  cartesian
[ACSolver]    =  0
[PrevType]    =  0
[PrevSoln]    =  ""
[Comment]     =  "Add comments here."
[PointProps]   = 0
[BdryProps]   = 0
[BlockProps]  = 6
  <BeginBlock>
    <BlockName> = "Air"
    <Mu_x> = 1
    <Mu_y> = 1
    <H_c> = 0
    <H_cAngle> = 0
    <J_re> = 0
    <J_im> = 0
    <Sigma> = 0
    <d_lam> = 0
    <Phi_h> = 0
    <Phi_hx> = 0
    <Phi_hy> = 0
    <LamType> = 0
    <LamFill> = 1
    <NStrands> = 0
    <WireD> = 0
    <BHPoints> = 0
  <EndBlock>
  <BeginBlock>
    <BlockName> = "32 AWG"
    <Mu_x> = 1
    <Mu_y> = 1
    <H_c> = 0
    <H_cAngle> = 0
    <J_re> = 0
    <J_im> = 0
    <Sigma> = 58
    <d_lam> = 0
    <Phi_h> = 0
    <Phi_hx> = 0
    <Phi_hy> = 0
    <LamType> = 3
    <LamFill> = 1
    <NStrands> = 1
    <WireD> = 0.20200766618485599
    <BHPoints> = 0
  <EndBlock>
  <BeginBlock>
    <BlockName> = "18 AWG"
    <Mu_x> = 1
    <Mu_y> = 1
    <H_c> = 0
    <H_cAngle> = 0
    <J_re> = 0
    <J_im> = 0
    <Sigma> = 58
    <d_lam> = 0
    <Phi_h> = 0
    <Phi_hx> = 0
    <Phi_hy> = 0
    <LamType> = 3
    <LamFill> = 1
    <NStrands> = 1
    <WireD> = 1.0239652968433499
    <BHPoints> = 0
  <EndBlock>
  <BeginBlock>
    <BlockName> = "Contorno"
    <Mu_x> = 10.523809523809501
    <Mu_y> = 10.523809523809501
    <H_c> = 0
    <H_cAngle> = 0
    <J_re> = 0
    <J_im> = 0
    <Sigma> = 0
    <d_lam> = 0
    <Phi_h> = 0
    <Phi_hx> = 0
    <Phi_hy> = 0
    <LamType> = 0
    <LamFill> = 1
    <NStrands> = 0
    <WireD> = 0
    <BHPoints> = 0
  <EndBlock>
  <BeginBlock>
    <BlockName> = "10 AWG"
    <Mu_x> = 1
    <Mu_y> = 1
    <H_c> = 0
    <H_cAngle> = 0
    <J_re> = 0
    <J_im> = 0
    <Sigma> = 58
    <d_lam> = 0
    <Phi_h> = 0
    <Phi_hx> = 0
    <Phi_hy> = 0
    <LamType> = 3
    <LamFill> = 1
    <NStrands> = 1
    <WireD> = 2.5887801724742099
    <BHPoints> = 0
  <EndBlock>
  <BeginBlock>
    <BlockName> = "24 AWG"
    <Mu_x> = 1
    <Mu_y> = 1
    <H_c> = 0
    <H_cAngle> = 0
    <J_re> = 0
    <J_im> = 0
    <Sigma> = 58
    <d_lam> = 0
    <Phi_h> = 0
    <Phi_hx> = 0
    <Phi_hy> = 0
    <LamType> = 3
    <LamFill> = 1
    <NStrands> = 1
    <WireD> = 0.510714027632857
    <BHPoints> = 0
  <EndBlock>
[CircuitProps]  = 2
  <BeginCircuit>
    <CircuitName> = "Im"
    <TotalAmps_re> = 100
    <TotalAmps_im> = 0
    <CircuitType> = 1
  <EndCircuit>
  <BeginCircuit>
    <CircuitName> = "Ir"
    <TotalAmps_re> = 0
    <TotalAmps_im> = 0
    <CircuitType> = 1
  <EndCircuit>
[NumPoints] = 33
39.845860435900001	-0.47570673219999998	0	1
39.595617045200001	-0.47570673219999998	0	1
39.596025468100002	3.0139247051	0	1
39.846771638699998	3.0023391136000002	0	1
41.683338787399997	3.0164633583999998	0	1
41.933972279099997	3.0064563806	0	1
43.672461244600001	-0.47306382019999998	0	1
43.672461244600001	-0.20522598249999999	0	1
41.933757143500003	-0.46417788329999998	0	1
41.933757143500003	1.523733416	0	1
46.132151248900001	-0.20522598249999999	0	1
46.132151248900001	-0.45522598250000001	0	1
43.923367898599999	-0.45522598250000001	0	1
43.671695389600004	3.0395377560000001	0	1
43.922623690000002	3.0214609121999998	0	1
46.129603937399999	1.523733416	0	1
46.129603937399999	1.773733416	0	1
41.683338787399997	1.773733416	0	1
41.683250767700002	-0.47109631120000001	0	1
-39.716443238972978	1.2841605994772416	0	1
-39.466444333983269	1.2783623522937853	0	1
-43.53956430862447	1.2642221525748933	0	1
1000.0839415264001	1.273733416	0	1
-999.91605847359995	1.273733416	0	1
1050.0839415263999	1.273733416	0	1
-1049.9160584736001	1.273733416	0	1
-43.789564340349024	1.2643419925645141	0	1
-41.80194387821652	1.2763298125857838	0	1
-41.551943945428128	1.2747842304107215	0	1
3.7579415263999998	1.273733416	0	1
-3.5900584736000001	1.273733416	0	1
-974.5885010513	1.273733416	0	1
-981.93650105129996	1.273733416	0	1
[NumSegments] = 13
0	1	-1	0	0	1
2	3	-1	0	0	1
4	5	-1	0	0	1
6	7	-1	0	0	1
8	9	-1	0	0	1
7	10	-1	0	0	1
10	11	-1	0	0	1
11	12	-1	0	0	1
13	14	-1	0	0	1
9	15	-1	0	0	1
15	16	-1	0	0	1
16	17	-1	0	0	1
17	18	-1	0	0	1
[NumArcSegments] = 20
3	19	177.49574267385	5	0	0	1	5
19	0	177.49574267385	5	0	0	1	5
2	20	177.471502974	5	0	0	1	5
20	1	177.471502974	5	0	0	1	5
13	21	177.69262406850001	5	0	0	1	5
21	6	177.69262406850001	5	0	0	1	5
22	23	180	5	0	0	1	5
23	22	180	5	0	0	1	5
24	25	180	5	0	0	1	5
25	24	180	5	0	0	1	5
14	26	177.72924868255001	5	0	0	1	5
26	12	177.72924868255001	5	0	0	1	5
5	27	177.62557693075001	5	0	0	1	5
27	8	177.62557693075001	5	0	0	1	5
4	28	177.59965579019999	5	0	0	1	5
28	18	177.59965579019999	5	0	0	1	5
29	30	180	5	0	0	1	5
30	29	180	5	0	0	1	5
31	32	180	5	0	0	1	5
32	31	180	5	0	0	1	5
[NumHoles] = 0
[NumBlockLabels] = 7
-1032	87	4	-1	0	0	0	1	0
-979	2	5	-1	1	0	0	-1	0
-15.4	17.600000000000001	1	-1	0	0	0	1	0
0	1.3	5	-1	1	0	0	1	0
-39.600000000000001	3	6	-1	2	0	0	20000	0
-41.399999999999999	6.5	6	-1	2	0	0	1	0
-42.490000000000002	11.02	6	-1	2	0	0	-20000	0
