Version 4
SHEET 1 1168 680
WIRE -208 -400 -240 -400
WIRE -96 -400 -128 -400
WIRE 64 -400 -96 -400
WIRE 128 -400 64 -400
WIRE -768 -384 -768 -400
WIRE 64 -384 64 -400
WIRE -96 -368 -96 -400
WIRE -1024 -352 -1024 -384
WIRE -560 -304 -560 -400
WIRE -560 -304 -576 -304
WIRE -768 -288 -768 -304
WIRE -656 -288 -768 -288
WIRE -96 -288 -96 -304
WIRE -96 -288 -160 -288
WIRE 64 -288 64 -304
WIRE 64 -288 -96 -288
WIRE -768 -272 -768 -288
WIRE -480 -272 -480 -400
WIRE -480 -272 -576 -272
WIRE -160 -272 -160 -288
WIRE 64 -272 64 -288
WIRE -656 -256 -688 -256
WIRE -96 -256 -96 -288
WIRE -1024 -240 -1024 -272
WIRE -544 -240 -576 -240
WIRE -528 -240 -544 -240
WIRE -688 -176 -688 -256
WIRE -544 -176 -544 -240
WIRE -544 -176 -688 -176
WIRE -208 -176 -224 -176
WIRE -96 -176 -96 -192
WIRE -96 -176 -128 -176
WIRE 64 -176 64 -192
WIRE 64 -176 -96 -176
WIRE 128 -176 64 -176
WIRE -768 -160 -768 -192
WIRE -960 48 -1120 48
WIRE -752 48 -752 -48
WIRE -752 48 -816 48
WIRE -960 80 -992 80
WIRE -720 80 -816 80
WIRE 160 80 160 -16
WIRE 160 80 144 80
WIRE -368 96 -400 96
WIRE -256 96 -288 96
WIRE -192 96 -256 96
WIRE -48 96 -112 96
WIRE 64 96 -48 96
WIRE -1024 112 -1024 -48
WIRE -960 112 -1024 112
WIRE -752 112 -752 48
WIRE -752 112 -816 112
WIRE 240 112 240 -16
WIRE 240 112 144 112
WIRE -48 128 -48 96
WIRE 64 128 32 128
WIRE -1104 144 -1104 -48
WIRE -960 144 -1104 144
WIRE -736 144 -816 144
WIRE -256 144 -256 96
WIRE 176 144 144 144
WIRE 208 144 176 144
WIRE -1104 176 -1104 144
WIRE -960 176 -1104 176
WIRE -736 176 -816 176
WIRE -992 224 -992 80
WIRE -256 224 -256 208
WIRE 32 224 32 128
WIRE 32 224 -256 224
WIRE 176 224 176 144
WIRE 176 224 32 224
WIRE -48 256 -48 192
FLAG -736 176 VRfn
IOPIN -736 176 In
FLAG -992 224 0
FLAG -1120 48 VRf
IOPIN -1120 48 In
FLAG -720 80 PGAOut
IOPIN -720 80 Out
FLAG -160 -272 0
FLAG -1024 -240 VRn
IOPIN -1024 -240 Out
FLAG -224 -176 VRn
IOPIN -224 -176 In
FLAG -240 -400 VR
IOPIN -240 -400 In
FLAG -1024 -384 VR
IOPIN -1024 -384 Out
FLAG 128 -400 VRf
IOPIN 128 -400 Out
FLAG 128 -176 VRfn
IOPIN 128 -176 Out
FLAG -768 -160 0
FLAG -736 144 Ref
IOPIN -736 144 In
FLAG -528 -240 Ref
IOPIN -528 -240 Out
FLAG -48 256 0
FLAG 208 144 Vout
IOPIN 208 144 Out
FLAG -400 96 PGAOut
IOPIN -400 96 In
SYMBOL 0_UofEvansville\\01_sources\\dc_1_ue -752 -64 R0
SYMATTR SpiceLine V=5
SYMATTR InstName U3
SYMBOL voltage -1024 -368 R0
WINDOW 123 24 124 Left 2
WINDOW 3 -144 -104 Left 2
WINDOW 39 0 0 Left 2
SYMATTR Value2 AC 1
SYMATTR Value ""
SYMATTR InstName V1
SYMBOL AutoGenerated\\AD8253 -896 112 R0
SYMATTR InstName U1
SYMBOL 0_UofEvansville\\01_sources\\dc_1_ue -1024 -64 R0
SYMATTR SpiceLine V=-5
SYMATTR InstName U4
SYMBOL 0_UofEvansville\\01_sources\\dc_1_ue -1104 -64 R0
SYMATTR SpiceLine V=5
SYMATTR InstName U2
SYMBOL res 48 -400 R0
SYMATTR InstName R1
SYMATTR Value 100k
SYMBOL res 48 -288 R0
SYMATTR InstName R2
SYMATTR Value 100k
SYMBOL res -112 -416 R90
WINDOW 0 0 56 VBottom 2
WINDOW 3 32 56 VTop 2
SYMATTR InstName R5
SYMATTR Value 56k
SYMBOL cap -112 -368 R0
SYMATTR InstName C4
SYMATTR Value 1µ
SYMBOL res -112 -192 R90
WINDOW 0 0 56 VBottom 2
WINDOW 3 32 56 VTop 2
SYMATTR InstName R3
SYMATTR Value 56k
SYMBOL cap -112 -256 R0
SYMATTR InstName C1
SYMATTR Value 1µ
SYMBOL AutoGenerated\\OP1177 -624 -272 R0
SYMATTR InstName U5
SYMBOL res -784 -288 R0
SYMATTR InstName R4
SYMATTR Value 10k
SYMBOL res -784 -400 R0
SYMATTR InstName R6
SYMATTR Value 10k
SYMBOL 0_UofEvansville\\01_sources\\dc_1_ue -768 -416 R0
SYMATTR SpiceLine V=5
SYMATTR InstName U6
SYMBOL 0_UofEvansville\\01_sources\\dc_1_ue -480 -416 R0
SYMATTR SpiceLine V=-5
SYMATTR InstName U7
SYMBOL 0_UofEvansville\\01_sources\\dc_1_ue -560 -416 R0
SYMATTR SpiceLine V=5
SYMATTR InstName U8
SYMBOL AutoGenerated\\OP1177 96 112 R0
SYMATTR InstName U9
SYMBOL 0_UofEvansville\\01_sources\\dc_1_ue 240 -32 R0
SYMATTR SpiceLine V=-5
SYMATTR InstName U11
SYMBOL 0_UofEvansville\\01_sources\\dc_1_ue 160 -32 R0
SYMATTR SpiceLine V=5
SYMATTR InstName U12
SYMBOL res -272 80 R90
WINDOW 0 0 56 VBottom 2
WINDOW 3 32 56 VTop 2
SYMATTR InstName R9
SYMATTR Value 33k
SYMBOL res -96 80 R90
WINDOW 0 0 56 VBottom 2
WINDOW 3 32 56 VTop 2
SYMATTR InstName R10
SYMATTR Value 33k
SYMBOL cap -272 144 R0
SYMATTR InstName C2
SYMATTR Value 10n
SYMBOL cap -64 128 R0
SYMATTR InstName C3
SYMATTR Value 10n
TEXT -1136 -144 Left 2 !.ac dec 100 0.1 100k
