Version 4
SHEET 1 880 680
WIRE -288 -720 -288 -736
WIRE -480 -656 -480 -688
WIRE 48 -640 48 -736
WIRE 48 -640 32 -640
WIRE -288 -624 -288 -640
WIRE -48 -624 -288 -624
WIRE -288 -608 -288 -624
WIRE 128 -608 128 -736
WIRE 128 -608 32 -608
WIRE -48 -592 -80 -592
WIRE 64 -576 32 -576
WIRE 80 -576 64 -576
WIRE -480 -544 -480 -576
WIRE -80 -512 -80 -592
WIRE 64 -512 64 -576
WIRE 64 -512 -80 -512
WIRE -288 -496 -288 -528
WIRE -896 -384 -928 -384
WIRE -752 -384 -816 -384
WIRE -560 -384 -752 -384
WIRE -496 -384 -560 -384
WIRE -560 -368 -560 -384
WIRE -752 -352 -752 -384
WIRE -96 -304 -256 -304
WIRE 112 -304 112 -400
WIRE 112 -304 48 -304
WIRE -752 -272 -752 -288
WIRE -656 -272 -752 -272
WIRE -560 -272 -560 -288
WIRE -560 -272 -656 -272
WIRE -96 -272 -128 -272
WIRE 144 -272 48 -272
WIRE -560 -256 -560 -272
WIRE -752 -240 -752 -272
WIRE -656 -240 -656 -272
WIRE -160 -240 -160 -400
WIRE -96 -240 -160 -240
WIRE 112 -240 112 -304
WIRE 112 -240 48 -240
WIRE -240 -208 -240 -400
WIRE -96 -208 -240 -208
WIRE 128 -208 48 -208
WIRE -240 -176 -240 -208
WIRE -96 -176 -240 -176
WIRE 128 -176 48 -176
WIRE -896 -160 -912 -160
WIRE -752 -160 -752 -176
WIRE -752 -160 -816 -160
WIRE -560 -160 -560 -176
WIRE -560 -160 -752 -160
WIRE -496 -160 -560 -160
WIRE -128 -128 -128 -272
FLAG -480 -544 VRn
IOPIN -480 -544 Out
FLAG -480 -688 VR
IOPIN -480 -688 Out
FLAG 128 -176 VRfn
IOPIN 128 -176 In
FLAG -128 -128 0
FLAG -256 -304 VRf
IOPIN -256 -304 In
FLAG 144 -272 Vout
IOPIN 144 -272 Out
FLAG -656 -240 0
FLAG -912 -160 VRn
IOPIN -912 -160 In
FLAG -928 -384 VR
IOPIN -928 -384 In
FLAG -496 -384 VRf
IOPIN -496 -384 Out
FLAG -496 -160 VRfn
IOPIN -496 -160 Out
FLAG -288 -496 0
FLAG 128 -208 Ref
IOPIN 128 -208 In
FLAG 80 -576 Ref
IOPIN 80 -576 Out
SYMBOL voltage -480 -672 R0
WINDOW 123 24 180 Left 2
WINDOW 3 -217 -114 Left 2
WINDOW 39 0 0 Left 2
SYMATTR Value2 AC 1
SYMATTR Value PWL file=vRogowski.wav
SYMATTR InstName V1
SYMBOL 0_UofEvansville\\01_sources\\dc_1_ue 112 -416 R0
WINDOW 39 -23 -16 Left 2
SYMATTR SpiceLine V=5
SYMATTR InstName U5
SYMBOL AutoGenerated\\AD8253 -32 -240 R0
SYMATTR InstName U6
SYMBOL 0_UofEvansville\\01_sources\\dc_1_ue -160 -416 R0
WINDOW 39 -21 -16 Left 2
SYMATTR SpiceLine V=-5
SYMATTR InstName U7
SYMBOL 0_UofEvansville\\01_sources\\dc_1_ue -240 -416 R0
WINDOW 39 -22 -16 Left 2
SYMATTR SpiceLine V=5
SYMATTR InstName U8
SYMBOL res -576 -384 R0
SYMATTR InstName R4
SYMATTR Value 1µ
SYMBOL res -576 -272 R0
SYMATTR InstName R6
SYMATTR Value 1µ
SYMBOL res -800 -400 R90
WINDOW 0 0 56 VBottom 2
WINDOW 3 32 56 VTop 2
SYMATTR InstName R7
SYMATTR Value 10k
SYMBOL cap -768 -352 R0
SYMATTR InstName C2
SYMATTR Value 1µ
SYMBOL res -800 -176 R90
WINDOW 0 0 56 VBottom 2
WINDOW 3 32 56 VTop 2
SYMATTR InstName R8
SYMATTR Value 10k
SYMBOL cap -768 -240 R0
SYMATTR InstName C3
SYMATTR Value 1µ
SYMBOL AutoGenerated\\OP1177 -16 -608 R0
SYMATTR InstName U9
SYMBOL res -304 -624 R0
SYMATTR InstName R9
SYMATTR Value 10k
SYMBOL res -304 -736 R0
SYMATTR InstName R10
SYMATTR Value 10k
SYMBOL 0_UofEvansville\\01_sources\\dc_1_ue -288 -752 R0
WINDOW 39 -24 -14 Left 2
SYMATTR SpiceLine V=5
SYMATTR InstName U10
SYMBOL 0_UofEvansville\\01_sources\\dc_1_ue 128 -752 R0
WINDOW 39 -24 -13 Left 2
SYMATTR SpiceLine V=-5
SYMATTR InstName U11
SYMBOL 0_UofEvansville\\01_sources\\dc_1_ue 48 -752 R0
WINDOW 39 0 -28 Top 2
SYMATTR SpiceLine V=5
SYMATTR InstName U12
SYMBOL Misc\\signal -976 -624 R0
WINDOW 123 0 0 Left 2
WINDOW 39 0 0 Left 2
WINDOW 3 49 84 Left 2
SYMATTR Value wavefile="C:\Users\Gpiaia\Desktop\Nova pasta\Topico 2\teste.wav" chan=0
SYMATTR InstName V2
TEXT -1018 -84 Left 2 !.tran 0.15
