Version 4
SHEET 1 880 680
WIRE -80 -768 -112 -768
WIRE 32 -768 0 -768
WIRE 160 -768 32 -768
WIRE 224 -768 160 -768
WIRE -672 -752 -672 -768
WIRE 160 -752 160 -768
WIRE 32 -736 32 -768
WIRE -464 -672 -464 -768
WIRE -464 -672 -480 -672
WIRE -1040 -656 -1040 -688
WIRE -672 -656 -672 -672
WIRE -560 -656 -672 -656
WIRE 32 -656 32 -672
WIRE 96 -656 32 -656
WIRE 160 -656 160 -672
WIRE 160 -656 96 -656
WIRE -672 -640 -672 -656
WIRE -384 -640 -384 -768
WIRE -384 -640 -480 -640
WIRE 96 -640 96 -656
WIRE 160 -640 160 -656
WIRE -560 -624 -592 -624
WIRE 32 -624 32 -656
WIRE -448 -608 -480 -608
WIRE -432 -608 -448 -608
WIRE -1040 -544 -1040 -576
WIRE -592 -544 -592 -624
WIRE -448 -544 -448 -608
WIRE -448 -544 -592 -544
WIRE -80 -544 -96 -544
WIRE 32 -544 32 -560
WIRE 32 -544 0 -544
WIRE 160 -544 160 -560
WIRE 160 -544 32 -544
WIRE 224 -544 160 -544
WIRE -672 -528 -672 -560
WIRE -864 -304 -1024 -304
WIRE -656 -304 -656 -400
WIRE -656 -304 -720 -304
WIRE 256 -288 256 -384
WIRE 256 -288 240 -288
WIRE -864 -272 -896 -272
WIRE -624 -272 -720 -272
WIRE -272 -272 -304 -272
WIRE -160 -272 -192 -272
WIRE -96 -272 -160 -272
WIRE 48 -272 -16 -272
WIRE 160 -272 48 -272
WIRE 336 -256 336 -384
WIRE 336 -256 240 -256
WIRE -928 -240 -928 -400
WIRE -864 -240 -928 -240
WIRE -656 -240 -656 -304
WIRE -656 -240 -720 -240
WIRE 48 -240 48 -272
WIRE 160 -240 128 -240
WIRE -160 -224 -160 -272
WIRE 272 -224 240 -224
WIRE 304 -224 272 -224
WIRE -1008 -208 -1008 -400
WIRE -864 -208 -1008 -208
WIRE -640 -208 -720 -208
WIRE -1008 -176 -1008 -208
WIRE -864 -176 -1008 -176
WIRE -640 -176 -720 -176
WIRE -160 -144 -160 -160
WIRE 128 -144 128 -240
WIRE 128 -144 -160 -144
WIRE 272 -144 272 -224
WIRE 272 -144 128 -144
WIRE -896 -128 -896 -272
WIRE 48 -112 48 -176
FLAG -1040 -544 VRn
IOPIN -1040 -544 Out
FLAG -1040 -688 VR
IOPIN -1040 -688 Out
FLAG -640 -176 VRfn
IOPIN -640 -176 In
FLAG -896 -128 0
FLAG -1024 -304 VRf
IOPIN -1024 -304 In
FLAG -624 -272 PGAOut
IOPIN -624 -272 Out
FLAG 96 -640 0
FLAG -96 -544 VRn
IOPIN -96 -544 In
FLAG -112 -768 VR
IOPIN -112 -768 In
FLAG 224 -768 VRf
IOPIN 224 -768 Out
FLAG 224 -544 VRfn
IOPIN 224 -544 Out
FLAG -672 -528 0
FLAG -640 -208 Ref
IOPIN -640 -208 In
FLAG -432 -608 Ref
IOPIN -432 -608 Out
FLAG 48 -112 0
FLAG 304 -224 Vout
IOPIN 304 -224 Out
FLAG -304 -272 PGAOut
IOPIN -304 -272 In
SYMBOL voltage -1040 -672 R0
WINDOW 123 24 124 Left 2
WINDOW 3 -200 -100 Left 2
SYMATTR Value2 AC 1
SYMATTR Value wavefile= vRogowskiSml.wav chan=2
SYMATTR InstName V1
SYMBOL 0_UofEvansville\\01_sources\\dc_1_ue -656 -416 R0
SYMATTR SpiceLine V=5
SYMATTR InstName U5
SYMBOL AutoGenerated\\AD8253 -800 -240 R0
SYMATTR InstName U6
SYMBOL 0_UofEvansville\\01_sources\\dc_1_ue -928 -416 R0
SYMATTR SpiceLine V=-5
SYMATTR InstName U7
SYMBOL 0_UofEvansville\\01_sources\\dc_1_ue -1008 -416 R0
SYMATTR SpiceLine V=5
SYMATTR InstName U8
SYMBOL res 144 -768 R0
SYMATTR InstName R4
SYMATTR Value 100k
SYMBOL res 144 -656 R0
SYMATTR InstName R6
SYMATTR Value 100k
SYMBOL res 16 -784 R90
WINDOW 0 0 56 VBottom 2
WINDOW 3 32 56 VTop 2
SYMATTR InstName R7
SYMATTR Value 56k
SYMBOL cap 16 -736 R0
SYMATTR InstName C2
SYMATTR Value 1µ
SYMBOL res 16 -560 R90
WINDOW 0 0 56 VBottom 2
WINDOW 3 32 56 VTop 2
SYMATTR InstName R8
SYMATTR Value 56k
SYMBOL cap 16 -624 R0
SYMATTR InstName C3
SYMATTR Value 1µ
SYMBOL AutoGenerated\\OP1177 -528 -640 R0
SYMATTR InstName U9
SYMBOL res -688 -656 R0
SYMATTR InstName R9
SYMATTR Value 10k
SYMBOL res -688 -768 R0
SYMATTR InstName R10
SYMATTR Value 10k
SYMBOL 0_UofEvansville\\01_sources\\dc_1_ue -672 -784 R0
SYMATTR SpiceLine V=5
SYMATTR InstName U10
SYMBOL 0_UofEvansville\\01_sources\\dc_1_ue -384 -784 R0
SYMATTR SpiceLine V=-5
SYMATTR InstName U11
SYMBOL 0_UofEvansville\\01_sources\\dc_1_ue -464 -784 R0
SYMATTR SpiceLine V=5
SYMATTR InstName U12
SYMBOL AutoGenerated\\OP1177 192 -256 R0
SYMATTR InstName U13
SYMBOL 0_UofEvansville\\01_sources\\dc_1_ue 336 -400 R0
SYMATTR SpiceLine V=-5
SYMATTR InstName U14
SYMBOL 0_UofEvansville\\01_sources\\dc_1_ue 256 -400 R0
SYMATTR SpiceLine V=5
SYMATTR InstName U15
SYMBOL res -176 -288 R90
WINDOW 0 0 56 VBottom 2
WINDOW 3 32 56 VTop 2
SYMATTR InstName R11
SYMATTR Value 33k
SYMBOL res 0 -288 R90
WINDOW 0 0 56 VBottom 2
WINDOW 3 32 56 VTop 2
SYMATTR InstName R12
SYMATTR Value 33k
SYMBOL cap -176 -224 R0
SYMATTR InstName C5
SYMATTR Value 10n
SYMBOL cap 32 -240 R0
SYMATTR InstName C6
SYMATTR Value 10n
TEXT -1144 -808 Left 2 !.tran 0 400m 0 10e-6
TEXT -112 -64 Left 2 !.wav output3.wav   16 10e3 Vout
