Version 4
SHEET 1 880 680
WIRE -352 112 -400 112
WIRE -352 128 -352 112
WIRE 16 128 -144 128
WIRE 224 128 224 32
WIRE 224 128 160 128
WIRE 16 160 -16 160
WIRE 336 160 160 160
WIRE 448 160 416 160
WIRE 544 160 448 160
WIRE -608 176 -608 144
WIRE -48 192 -48 32
WIRE 16 192 -48 192
WIRE 224 192 224 128
WIRE 224 192 160 192
WIRE -352 224 -352 208
WIRE -288 224 -352 224
WIRE -128 224 -128 32
WIRE 16 224 -128 224
WIRE 192 224 160 224
WIRE -352 240 -352 224
WIRE -288 240 -288 224
WIRE 448 240 448 160
WIRE -128 256 -128 224
WIRE 16 256 -128 256
WIRE 256 256 160 256
WIRE -608 288 -608 256
WIRE -352 336 -352 320
WIRE -352 336 -400 336
WIRE -16 336 -16 160
WIRE 80 336 -16 336
WIRE 192 336 192 224
WIRE 192 336 80 336
WIRE 448 336 448 304
WIRE 80 352 80 336
FLAG 256 256 VGn
IOPIN 256 256 In
FLAG 80 352 0
FLAG -144 128 VG
IOPIN -144 128 In
FLAG 544 160 Vout
IOPIN 544 160 Out
FLAG -288 240 0
FLAG -608 288 VGn
IOPIN -608 288 Out
FLAG -400 336 VGn
IOPIN -400 336 In
FLAG -400 112 VG
IOPIN -400 112 In
FLAG 448 336 0
FLAG -608 144 VG
IOPIN -608 144 Out
SYMBOL 0_UofEvansville\\01_sources\\dc_1_ue 224 16 R0
SYMATTR SpiceLine V=5
SYMATTR InstName U3
SYMBOL voltage -608 160 R0
WINDOW 123 24 124 Left 2
WINDOW 3 -144 -104 Left 2
SYMATTR Value2 AC 1
SYMATTR InstName V1
SYMATTR Value wavefile= vRogowski.wav chan=0
SYMBOL AutoGenerated\\AD8253 80 192 R0
SYMATTR InstName U1
SYMBOL 0_UofEvansville\\01_sources\\dc_1_ue -48 16 R0
SYMATTR SpiceLine V=-5
SYMATTR InstName U4
SYMBOL 0_UofEvansville\\01_sources\\dc_1_ue -128 16 R0
SYMATTR SpiceLine V=5
SYMATTR InstName U2
SYMBOL res -368 112 R0
SYMATTR InstName R1
SYMATTR Value 100k
SYMBOL res -368 224 R0
SYMATTR InstName R2
SYMATTR Value 100k
SYMBOL res 432 144 R90
WINDOW 0 0 56 VBottom 2
WINDOW 3 32 56 VTop 2
SYMATTR InstName R5
SYMATTR Value 56k
SYMBOL cap 432 240 R0
SYMATTR InstName C4
SYMATTR Value 1µ
TEXT -664 24 Left 2 !.tran 0 400m 0 10e-6
TEXT 296 384 Left 2 !.wav output.wav   16 10e3 Vout
