Version 4
SHEET 1 880 680
WIRE -224 -768 -256 -768
WIRE -80 -768 -144 -768
WIRE 112 -768 -80 -768
WIRE 176 -768 112 -768
WIRE -928 -752 -928 -768
WIRE 112 -752 112 -768
WIRE -80 -736 -80 -768
WIRE -1200 -688 -1200 -720
WIRE -592 -672 -592 -768
WIRE -592 -672 -608 -672
WIRE -928 -656 -928 -672
WIRE -688 -656 -928 -656
WIRE -80 -656 -80 -672
WIRE -16 -656 -80 -656
WIRE 112 -656 112 -672
WIRE 112 -656 -16 -656
WIRE -928 -640 -928 -656
WIRE -512 -640 -512 -768
WIRE -512 -640 -608 -640
WIRE -16 -640 -16 -656
WIRE 112 -640 112 -656
WIRE -688 -624 -720 -624
WIRE -80 -624 -80 -656
WIRE -576 -608 -608 -608
WIRE -560 -608 -576 -608
WIRE -1200 -576 -1200 -608
WIRE -720 -544 -720 -624
WIRE -576 -544 -576 -608
WIRE -576 -544 -720 -544
WIRE -224 -544 -240 -544
WIRE -80 -544 -80 -560
WIRE -80 -544 -144 -544
WIRE 112 -544 112 -560
WIRE 112 -544 -80 -544
WIRE 176 -544 112 -544
WIRE -928 -528 -928 -560
WIRE -1056 -304 -1216 -304
WIRE -848 -304 -848 -400
WIRE -848 -304 -912 -304
WIRE 160 -288 160 -384
WIRE 160 -288 144 -288
WIRE -1056 -272 -1088 -272
WIRE -816 -272 -912 -272
WIRE -512 -272 -544 -272
WIRE -368 -272 -432 -272
WIRE -288 -272 -368 -272
WIRE -144 -272 -208 -272
WIRE 64 -272 -144 -272
WIRE 240 -256 240 -384
WIRE 240 -256 144 -256
WIRE -1120 -240 -1120 -400
WIRE -1056 -240 -1120 -240
WIRE -848 -240 -848 -304
WIRE -848 -240 -912 -240
WIRE -144 -240 -144 -272
WIRE 64 -240 32 -240
WIRE -368 -224 -368 -272
WIRE 176 -224 144 -224
WIRE 208 -224 176 -224
WIRE -1200 -208 -1200 -400
WIRE -1056 -208 -1200 -208
WIRE -832 -208 -912 -208
WIRE -1200 -176 -1200 -208
WIRE -1056 -176 -1200 -176
WIRE -832 -176 -912 -176
WIRE -368 -144 -368 -160
WIRE 32 -144 32 -240
WIRE 32 -144 -368 -144
WIRE 176 -144 176 -224
WIRE 176 -144 32 -144
WIRE -1088 -128 -1088 -272
WIRE -144 -112 -144 -176
FLAG -1200 -576 VRn
IOPIN -1200 -576 Out
FLAG -1200 -720 VR
IOPIN -1200 -720 Out
FLAG -832 -176 VRfn
IOPIN -832 -176 In
FLAG -1088 -128 0
FLAG -1216 -304 VRf
IOPIN -1216 -304 In
FLAG -816 -272 PGAOut
IOPIN -816 -272 Out
FLAG -16 -640 0
FLAG -240 -544 VRn
IOPIN -240 -544 In
FLAG -256 -768 VR
IOPIN -256 -768 In
FLAG 176 -768 VRf
IOPIN 176 -768 Out
FLAG 176 -544 VRfn
IOPIN 176 -544 Out
FLAG -928 -528 0
FLAG -832 -208 Ref
IOPIN -832 -208 In
FLAG -560 -608 Ref
IOPIN -560 -608 Out
FLAG -144 -112 0
FLAG 208 -224 Vout
IOPIN 208 -224 Out
FLAG -544 -272 PGAOut
IOPIN -544 -272 In
SYMBOL voltage -1200 -704 R0
WINDOW 123 24 180 Left 2
WINDOW 3 24 152 Left 2
WINDOW 39 0 0 Left 2
SYMATTR Value2 AC 1
SYMATTR Value ""
SYMATTR InstName V1
SYMBOL 0_UofEvansville\\01_sources\\dc_1_ue -848 -416 R0
SYMATTR SpiceLine V=5
SYMATTR InstName U5
SYMBOL AutoGenerated\\AD8253 -992 -240 R0
SYMATTR InstName U6
SYMBOL 0_UofEvansville\\01_sources\\dc_1_ue -1120 -416 R0
SYMATTR SpiceLine V=-5
SYMATTR InstName U7
SYMBOL 0_UofEvansville\\01_sources\\dc_1_ue -1200 -416 R0
SYMATTR SpiceLine V=5
SYMATTR InstName U8
SYMBOL res 96 -768 R0
SYMATTR InstName R4
SYMATTR Value {mc(100K,tolr)}
SYMBOL res 96 -656 R0
SYMATTR InstName R6
SYMATTR Value {mc(100K,tolr)}
SYMBOL res -128 -784 R90
WINDOW 0 0 56 VBottom 2
WINDOW 3 32 56 VTop 2
SYMATTR InstName R7
SYMATTR Value {mc(56K,tolr)}
SYMBOL cap -96 -736 R0
SYMATTR InstName C2
SYMATTR Value {mc(1u,tolc)}
SYMBOL res -128 -560 R90
WINDOW 0 0 56 VBottom 2
WINDOW 3 32 56 VTop 2
SYMATTR InstName R8
SYMATTR Value {mc(56K,tolr)}
SYMBOL cap -96 -624 R0
SYMATTR InstName C3
SYMATTR Value {mc(1u,tolc)}
SYMBOL AutoGenerated\\OP1177 -656 -640 R0
SYMATTR InstName U9
SYMBOL res -944 -656 R0
SYMATTR InstName R9
SYMATTR Value {mc(10K,tolr)}
SYMBOL res -944 -768 R0
SYMATTR InstName R10
SYMATTR Value {mc(10K,tolr)}
SYMBOL 0_UofEvansville\\01_sources\\dc_1_ue -928 -784 R0
SYMATTR SpiceLine V=5
SYMATTR InstName U10
SYMBOL 0_UofEvansville\\01_sources\\dc_1_ue -512 -784 R0
SYMATTR SpiceLine V=-5
SYMATTR InstName U11
SYMBOL 0_UofEvansville\\01_sources\\dc_1_ue -592 -784 R0
SYMATTR SpiceLine V=5
SYMATTR InstName U12
SYMBOL AutoGenerated\\OP1177 96 -256 R0
SYMATTR InstName U13
SYMBOL 0_UofEvansville\\01_sources\\dc_1_ue 240 -400 R0
SYMATTR SpiceLine V=-5
SYMATTR InstName U14
SYMBOL 0_UofEvansville\\01_sources\\dc_1_ue 160 -400 R0
SYMATTR SpiceLine V=5
SYMATTR InstName U15
SYMBOL res -416 -288 R90
WINDOW 0 0 56 VBottom 2
WINDOW 3 32 56 VTop 2
SYMATTR InstName R11
SYMATTR Value {mc(33K,tolr)}
SYMBOL res -192 -288 R90
WINDOW 0 0 56 VBottom 2
WINDOW 3 32 56 VTop 2
SYMATTR InstName R12
SYMATTR Value {mc(33K,tolr)}
SYMBOL cap -384 -224 R0
SYMATTR InstName C5
SYMATTR Value {mc(10n,tolc)}
SYMBOL cap -160 -240 R0
SYMATTR InstName C6
SYMATTR Value {mc(10n,tolc)}
TEXT -1648 -696 Left 2 !.param tolr=0.001 tolc=0.001
TEXT -1648 -632 Left 2 !.step param run 1 100 1
TEXT -1648 -664 Left 2 !.temp 80
TEXT -1648 -600 Left 2 !.ac dec 1000 0.1 1MEG
