Version 4
SHEET 1 880 680
WIRE -1008 -816 -1008 -832
WIRE -1200 -752 -1200 -784
WIRE -672 -736 -672 -832
WIRE -672 -736 -688 -736
WIRE -1008 -720 -1008 -736
WIRE -768 -720 -1008 -720
WIRE -1008 -704 -1008 -720
WIRE -592 -704 -592 -832
WIRE -592 -704 -688 -704
WIRE -768 -688 -800 -688
WIRE -656 -672 -688 -672
WIRE -640 -672 -656 -672
WIRE -1200 -640 -1200 -672
WIRE -800 -608 -800 -688
WIRE -656 -608 -656 -672
WIRE -656 -608 -800 -608
WIRE -1008 -592 -1008 -624
WIRE -1664 -480 -1696 -480
WIRE -1520 -480 -1584 -480
WIRE -1328 -480 -1520 -480
WIRE -1264 -480 -1328 -480
WIRE -1328 -464 -1328 -480
WIRE -1520 -448 -1520 -480
WIRE -816 -400 -976 -400
WIRE -608 -400 -608 -496
WIRE -608 -400 -672 -400
WIRE -1520 -368 -1520 -384
WIRE -1456 -368 -1520 -368
WIRE -1328 -368 -1328 -384
WIRE -1328 -368 -1456 -368
WIRE -816 -368 -848 -368
WIRE -576 -368 -672 -368
WIRE -1456 -352 -1456 -368
WIRE -1328 -352 -1328 -368
WIRE -1520 -336 -1520 -368
WIRE -880 -336 -880 -496
WIRE -816 -336 -880 -336
WIRE -608 -336 -608 -400
WIRE -608 -336 -672 -336
WIRE -960 -304 -960 -496
WIRE -816 -304 -960 -304
WIRE -592 -304 -672 -304
WIRE -960 -272 -960 -304
WIRE -816 -272 -960 -272
WIRE -592 -272 -672 -272
WIRE -1664 -256 -1680 -256
WIRE -1520 -256 -1520 -272
WIRE -1520 -256 -1584 -256
WIRE -1328 -256 -1328 -272
WIRE -1328 -256 -1520 -256
WIRE -1264 -256 -1328 -256
WIRE -848 -224 -848 -368
FLAG -1200 -640 VRn
IOPIN -1200 -640 Out
FLAG -1200 -784 VR
IOPIN -1200 -784 Out
FLAG -592 -272 VRfn
IOPIN -592 -272 In
FLAG -848 -224 0
FLAG -976 -400 VRf
IOPIN -976 -400 In
FLAG -576 -368 Vout
IOPIN -576 -368 Out
FLAG -1456 -352 0
FLAG -1680 -256 VRn
IOPIN -1680 -256 In
FLAG -1696 -480 VR
IOPIN -1696 -480 In
FLAG -1264 -480 VRf
IOPIN -1264 -480 Out
FLAG -1264 -256 VRfn
IOPIN -1264 -256 Out
FLAG -1008 -592 0
FLAG -592 -304 Ref
IOPIN -592 -304 In
FLAG -640 -672 Ref
IOPIN -640 -672 Out
SYMBOL voltage -1200 -768 R0
WINDOW 123 24 180 Left 2
WINDOW 3 24 152 Left 2
WINDOW 39 0 0 Left 2
SYMATTR Value2 AC 1
SYMATTR Value ""
SYMATTR InstName V1
SYMBOL 0_UofEvansville\\01_sources\\dc_1_ue -608 -512 R0
WINDOW 39 -23 -16 Left 2
SYMATTR SpiceLine V=5
SYMATTR InstName U1
SYMBOL AutoGenerated\\AD8253 -752 -336 R0
SYMATTR InstName U5
SYMBOL 0_UofEvansville\\01_sources\\dc_1_ue -880 -512 R0
WINDOW 39 -21 -16 Left 2
SYMATTR SpiceLine V=-5
SYMATTR InstName U3
SYMBOL 0_UofEvansville\\01_sources\\dc_1_ue -960 -512 R0
WINDOW 39 -22 -16 Left 2
SYMATTR SpiceLine V=5
SYMATTR InstName U4
SYMBOL res -1344 -480 R0
SYMATTR InstName R1
SYMATTR Value {mc(100K,tolr)}
SYMBOL res -1344 -368 R0
SYMATTR InstName R2
SYMATTR Value {mc(100K,tolr)}
SYMBOL res -1568 -496 R90
WINDOW 0 0 56 VBottom 2
WINDOW 3 32 56 VTop 2
SYMATTR InstName R3
SYMATTR Value {mc(56K,tolr)}
SYMBOL cap -1536 -448 R0
SYMATTR InstName C1
SYMATTR Value {mc(1u,tolc)}
SYMBOL res -1568 -272 R90
WINDOW 0 0 56 VBottom 2
WINDOW 3 32 56 VTop 2
SYMATTR InstName R4
SYMATTR Value {mc(56K,tolr)}
SYMBOL cap -1536 -336 R0
SYMATTR InstName C2
SYMATTR Value {mc(1u,tolc)}
SYMBOL AutoGenerated\\OP1177 -736 -704 R0
SYMATTR InstName U7
SYMBOL res -1024 -720 R0
SYMATTR InstName R6
SYMATTR Value {mc(10K,tolr)}
SYMBOL res -1024 -832 R0
SYMATTR InstName R5
SYMATTR Value {mc(10K,tolr)}
SYMBOL 0_UofEvansville\\01_sources\\dc_1_ue -1008 -848 R0
WINDOW 39 -24 -14 Left 2
SYMATTR SpiceLine V=5
SYMATTR InstName U17
SYMBOL 0_UofEvansville\\01_sources\\dc_1_ue -592 -848 R0
WINDOW 39 -24 -13 Left 2
SYMATTR SpiceLine V=-5
SYMATTR InstName U18
SYMBOL 0_UofEvansville\\01_sources\\dc_1_ue -672 -848 R0
WINDOW 39 0 -28 Top 2
SYMATTR SpiceLine V=5
SYMATTR InstName U19
TEXT -1752 -712 Left 2 !.param tolr=0.001 tolc=0.001
TEXT -1752 -656 Left 2 !.step param run 1 100 1
TEXT -1752 -776 Left 2 !.noise V(vout) V1 dec 100 0.1 1MEG
TEXT -1752 -744 Left 2 !.MEAS NOISE VruidoRMS INTEG V(onoise)
TEXT -1752 -680 Left 2 !.temp 80
